Version 4
SHEET 1 1664 680
WIRE 144 -400 0 -400
WIRE 400 -400 224 -400
WIRE 528 -240 224 -240
WIRE 528 -64 528 -240
WIRE 224 -48 224 -240
WIRE -144 -32 -272 -32
WIRE 0 -32 0 -400
WIRE 0 -32 -64 -32
WIRE 192 -32 0 -32
WIRE 400 -16 400 -400
WIRE 400 -16 256 -16
WIRE 192 0 16 0
WIRE 528 64 528 16
WIRE 688 64 528 64
WIRE 16 96 16 80
WIRE 528 96 528 64
WIRE 688 96 688 64
WIRE -272 112 -272 -32
WIRE 400 192 400 -16
WIRE 16 224 16 176
WIRE 224 256 224 16
WIRE 528 256 528 176
WIRE 528 256 224 256
FLAG 688 96 0
FLAG 16 224 0
FLAG -272 112 0
FLAG 400 192 Vout
IOPIN 400 192 Out
SYMBOL LM741 224 -80 R0
SYMATTR InstName U1
SYMBOL voltage 528 -80 R0
WINDOW 123 0 0 Left 0
WINDOW 39 0 0 Left 0
SYMATTR InstName V1
SYMATTR Value 12
SYMBOL voltage 528 80 R0
WINDOW 123 0 0 Left 0
WINDOW 39 0 0 Left 0
SYMATTR InstName V2
SYMATTR Value 12
SYMBOL res 240 -416 R90
WINDOW 0 0 56 VBottom 2
WINDOW 3 32 56 VTop 2
SYMATTR InstName R1
SYMATTR Value 10k
SYMBOL voltage 16 80 R0
WINDOW 123 0 0 Left 0
WINDOW 39 0 0 Left 0
SYMATTR InstName V3
SYMATTR Value SINE(0 1 1k)
SYMBOL res -48 -48 R90
WINDOW 0 0 56 VBottom 2
WINDOW 3 32 56 VTop 2
SYMATTR InstName R2
SYMATTR Value 10k
SYMBOL res 0 -16 R0
SYMATTR InstName R3
SYMATTR Value 5k
TEXT -296 264 Left 2 !.tran 10ms
